// Generated for: spectre
// Generated on: Nov 10 12:35:27 2010
// Design library name: 16BitMul
// Design cell name: Multiplier_15_0_1000
// Design view name: schematic
simulator lang=spectre
global 0 vdd! VDD! GND!

// Library name: CORE9GPLL
// Cell name: FA1LL
// View name: cmos_sch
subckt FA1LL A B CI CO Z inh_gnd inh_vdd
    MP15 (Z net184 inh_vdd inh_vdd) EPLLGP_BS3JU w=1.05u l=0.13u nfing=1 \
        ncrsd=1 number=1 srcefirst=1 ngcon=1 mismatch=1 po2act=-1 nbti=0 \
        lpe=0
    MP14 (net122 A net98 inh_vdd) EPLLGP_BS3JU w=0.68u l=0.13u nfing=1 \
        ncrsd=1 number=1 srcefirst=1 ngcon=1 mismatch=1 po2act=-1 nbti=0 \
        lpe=0
    MP13 (net146 CI inh_vdd inh_vdd) EPLLGP_BS3JU w=0.63u l=0.13u nfing=1 \
        ncrsd=1 number=1 srcefirst=1 ngcon=1 mismatch=1 po2act=-1 nbti=0 \
        lpe=0
    MP7 (CO net168 inh_vdd inh_vdd) EPLLGP_BS3JU w=1.05u l=0.13u nfing=1 \
        ncrsd=1 number=1 srcefirst=1 ngcon=1 mismatch=1 po2act=-1 nbti=0 \
        lpe=0
    MP5 (net114 A inh_vdd inh_vdd) EPLLGP_BS3JU w=0.63u l=0.13u nfing=1 \
        ncrsd=1 number=1 srcefirst=1 ngcon=1 mismatch=1 po2act=-1 nbti=0 \
        lpe=0
    MP6 (net168 B net114 inh_vdd) EPLLGP_BS3JU w=0.63u l=0.13u nfing=1 \
        ncrsd=1 number=1 srcefirst=1 ngcon=1 mismatch=1 po2act=-1 nbti=0 \
        lpe=0
    MP8 (net146 B inh_vdd inh_vdd) EPLLGP_BS3JU w=0.63u l=0.13u nfing=1 \
        ncrsd=1 number=1 srcefirst=1 ngcon=1 mismatch=1 po2act=-1 nbti=0 \
        lpe=0
    MP9 (net184 CI net122 inh_vdd) EPLLGP_BS3JU w=0.68u l=0.13u nfing=1 \
        ncrsd=1 number=1 srcefirst=1 ngcon=1 mismatch=1 po2act=-1 nbti=0 \
        lpe=0
    MP10 (net98 B inh_vdd inh_vdd) EPLLGP_BS3JU w=0.68u l=0.13u nfing=1 \
        ncrsd=1 number=1 srcefirst=1 ngcon=1 mismatch=1 po2act=-1 nbti=0 \
        lpe=0
    MP11 (net146 A inh_vdd inh_vdd) EPLLGP_BS3JU w=0.63u l=0.13u nfing=1 \
        ncrsd=1 number=1 srcefirst=1 ngcon=1 mismatch=1 po2act=-1 nbti=0 \
        lpe=0
    MP4 (net135 A inh_vdd inh_vdd) EPLLGP_BS3JU w=0.63u l=0.13u nfing=1 \
        ncrsd=1 number=1 srcefirst=1 ngcon=1 mismatch=1 po2act=-1 nbti=0 \
        lpe=0
    MP2 (net168 CI net135 inh_vdd) EPLLGP_BS3JU w=0.63u l=0.13u nfing=1 \
        ncrsd=1 number=1 srcefirst=1 ngcon=1 mismatch=1 po2act=-1 nbti=0 \
        lpe=0
    MP1 (net135 B inh_vdd inh_vdd) EPLLGP_BS3JU w=0.63u l=0.13u nfing=1 \
        ncrsd=1 number=1 srcefirst=1 ngcon=1 mismatch=1 po2act=-1 nbti=0 \
        lpe=0
    MP12 (net184 net168 net146 inh_vdd) EPLLGP_BS3JU w=0.63u l=0.13u \
        nfing=1 ncrsd=1 number=1 srcefirst=1 ngcon=1 mismatch=1 po2act=-1 \
        nbti=0 lpe=0
    MN13 (Z net184 inh_gnd inh_gnd) ENLLGP_BS3JU w=0.585u l=0.13u nfing=1 \
        ncrsd=1 number=1 srcefirst=1 ngcon=1 mismatch=1 po2act=-1 lpe=0
    MN12 (net156 A net176 inh_gnd) ENLLGP_BS3JU w=0.3u l=0.13u nfing=1 \
        ncrsd=1 number=1 srcefirst=1 ngcon=1 mismatch=1 po2act=-1 lpe=0
    MN5 (CO net168 inh_gnd inh_gnd) ENLLGP_BS3JU w=0.585u l=0.13u nfing=1 \
        ncrsd=1 number=1 srcefirst=1 ngcon=1 mismatch=1 po2act=-1 lpe=0
    MN11 (net188 CI inh_gnd inh_gnd) ENLLGP_BS3JU w=0.3u l=0.13u nfing=1 \
        ncrsd=1 number=1 srcefirst=1 ngcon=1 mismatch=1 po2act=-1 lpe=0
    MN4 (net168 B net204 inh_gnd) ENLLGP_BS3JU w=0.3u l=0.13u nfing=1 \
        ncrsd=1 number=1 srcefirst=1 ngcon=1 mismatch=1 po2act=-1 lpe=0
    MN6 (net184 CI net156 inh_gnd) ENLLGP_BS3JU w=0.3u l=0.13u nfing=1 \
        ncrsd=1 number=1 srcefirst=1 ngcon=1 mismatch=1 po2act=-1 lpe=0
    MN7 (net176 B inh_gnd inh_gnd) ENLLGP_BS3JU w=0.3u l=0.13u nfing=1 \
        ncrsd=1 number=1 srcefirst=1 ngcon=1 mismatch=1 po2act=-1 lpe=0
    MN8 (net188 B inh_gnd inh_gnd) ENLLGP_BS3JU w=0.3u l=0.13u nfing=1 \
        ncrsd=1 number=1 srcefirst=1 ngcon=1 mismatch=1 po2act=-1 lpe=0
    MN9 (net184 net168 net188 inh_gnd) ENLLGP_BS3JU w=0.3u l=0.13u nfing=1 \
        ncrsd=1 number=1 srcefirst=1 ngcon=1 mismatch=1 po2act=-1 lpe=0
    MN10 (net188 A inh_gnd inh_gnd) ENLLGP_BS3JU w=0.3u l=0.13u nfing=1 \
        ncrsd=1 number=1 srcefirst=1 ngcon=1 mismatch=1 po2act=-1 lpe=0
    MN3 (net168 CI net200 inh_gnd) ENLLGP_BS3JU w=0.3u l=0.13u nfing=1 \
        ncrsd=1 number=1 srcefirst=1 ngcon=1 mismatch=1 po2act=-1 lpe=0
    MN2 (net200 B inh_gnd inh_gnd) ENLLGP_BS3JU w=0.3u l=0.13u nfing=1 \
        ncrsd=1 number=1 srcefirst=1 ngcon=1 mismatch=1 po2act=-1 lpe=0
    MN1 (net200 A inh_gnd inh_gnd) ENLLGP_BS3JU w=0.3u l=0.13u nfing=1 \
        ncrsd=1 number=1 srcefirst=1 ngcon=1 mismatch=1 po2act=-1 lpe=0
    MN0 (net204 A inh_gnd inh_gnd) ENLLGP_BS3JU w=0.3u l=0.13u nfing=1 \
        ncrsd=1 number=1 srcefirst=1 ngcon=1 mismatch=1 po2act=-1 lpe=0
ends FA1LL
// End of subcircuit definition.

// Library name: 16BitMul
// Cell name: UBFA_11
// View name: schematic
subckt UBFA_11 C S X Y Z inh_gnd inh_vdd
    g49 (Y X Z C S inh_gnd inh_vdd) FA1LL
ends UBFA_11
// End of subcircuit definition.

// Library name: 16BitMul
// Cell name: UBFA_10
// View name: schematic
subckt UBFA_10 C S X Y Z inh_gnd inh_vdd
    g49 (Y X Z C S inh_gnd inh_vdd) FA1LL
ends UBFA_10
// End of subcircuit definition.

// Library name: 16BitMul
// Cell name: UBFA_9
// View name: schematic
subckt UBFA_9 C S X Y Z inh_gnd inh_vdd
    g49 (Y X Z C S inh_gnd inh_vdd) FA1LL
ends UBFA_9
// End of subcircuit definition.

// Library name: 16BitMul
// Cell name: UBFA_8
// View name: schematic
subckt UBFA_8 C S X Y Z inh_gnd inh_vdd
    g49 (Y X Z C S inh_gnd inh_vdd) FA1LL
ends UBFA_8
// End of subcircuit definition.

// Library name: 16BitMul
// Cell name: UBFA_7
// View name: schematic
subckt UBFA_7 C S X Y Z inh_gnd inh_vdd
    g49 (Y X Z C S inh_gnd inh_vdd) FA1LL
ends UBFA_7
// End of subcircuit definition.

// Library name: 16BitMul
// Cell name: UBFA_6
// View name: schematic
subckt UBFA_6 C S X Y Z inh_gnd inh_vdd
    g49 (Y X Z C S inh_gnd inh_vdd) FA1LL
ends UBFA_6
// End of subcircuit definition.

// Library name: 16BitMul
// Cell name: UBFA_5
// View name: schematic
subckt UBFA_5 C S X Y Z inh_gnd inh_vdd
    g49 (Y X Z C S inh_gnd inh_vdd) FA1LL
ends UBFA_5
// End of subcircuit definition.

// Library name: 16BitMul
// Cell name: UBFA_29
// View name: schematic
subckt UBFA_29 C S X Y Z inh_gnd inh_vdd
    g49 (Y X Z C S inh_gnd inh_vdd) FA1LL
ends UBFA_29
// End of subcircuit definition.

// Library name: 16BitMul
// Cell name: UBFA_28
// View name: schematic
subckt UBFA_28 C S X Y Z inh_gnd inh_vdd
    g49 (Y X Z C S inh_gnd inh_vdd) FA1LL
ends UBFA_28
// End of subcircuit definition.

// Library name: 16BitMul
// Cell name: UBFA_27
// View name: schematic
subckt UBFA_27 C S X Y Z inh_gnd inh_vdd
    g49 (Y X Z C S inh_gnd inh_vdd) FA1LL
ends UBFA_27
// End of subcircuit definition.

// Library name: 16BitMul
// Cell name: UBFA_26
// View name: schematic
subckt UBFA_26 C S X Y Z inh_gnd inh_vdd
    g49 (Y X Z C S inh_gnd inh_vdd) FA1LL
ends UBFA_26
// End of subcircuit definition.

// Library name: 16BitMul
// Cell name: UBFA_25
// View name: schematic
subckt UBFA_25 C S X Y Z inh_gnd inh_vdd
    g49 (Y X Z C S inh_gnd inh_vdd) FA1LL
ends UBFA_25
// End of subcircuit definition.

// Library name: 16BitMul
// Cell name: UBFA_24
// View name: schematic
subckt UBFA_24 C S X Y Z inh_gnd inh_vdd
    g49 (Y X Z C S inh_gnd inh_vdd) FA1LL
ends UBFA_24
// End of subcircuit definition.

// Library name: 16BitMul
// Cell name: UBFA_23
// View name: schematic
subckt UBFA_23 C S X Y Z inh_gnd inh_vdd
    g49 (Y X Z C S inh_gnd inh_vdd) FA1LL
ends UBFA_23
// End of subcircuit definition.

// Library name: 16BitMul
// Cell name: UBFA_22
// View name: schematic
subckt UBFA_22 C S X Y Z inh_gnd inh_vdd
    g49 (Y X Z C S inh_gnd inh_vdd) FA1LL
ends UBFA_22
// End of subcircuit definition.

// Library name: 16BitMul
// Cell name: UBFA_4
// View name: schematic
subckt UBFA_4 C S X Y Z inh_gnd inh_vdd
    g49 (Y X Z C S inh_gnd inh_vdd) FA1LL
ends UBFA_4
// End of subcircuit definition.

// Library name: 16BitMul
// Cell name: UBFA_21
// View name: schematic
subckt UBFA_21 C S X Y Z inh_gnd inh_vdd
    g49 (Y X Z C S inh_gnd inh_vdd) FA1LL
ends UBFA_21
// End of subcircuit definition.

// Library name: 16BitMul
// Cell name: UBFA_20
// View name: schematic
subckt UBFA_20 C S X Y Z inh_gnd inh_vdd
    g49 (Y X Z C S inh_gnd inh_vdd) FA1LL
ends UBFA_20
// End of subcircuit definition.

// Library name: 16BitMul
// Cell name: UBFA_19
// View name: schematic
subckt UBFA_19 C S X Y Z inh_gnd inh_vdd
    g49 (Y X Z C S inh_gnd inh_vdd) FA1LL
ends UBFA_19
// End of subcircuit definition.

// Library name: 16BitMul
// Cell name: UBFA_18
// View name: schematic
subckt UBFA_18 C S X Y Z inh_gnd inh_vdd
    g49 (Y X Z C S inh_gnd inh_vdd) FA1LL
ends UBFA_18
// End of subcircuit definition.

// Library name: 16BitMul
// Cell name: UBFA_17
// View name: schematic
subckt UBFA_17 C S X Y Z inh_gnd inh_vdd
    g49 (Y X Z C S inh_gnd inh_vdd) FA1LL
ends UBFA_17
// End of subcircuit definition.

// Library name: 16BitMul
// Cell name: UBFA_16
// View name: schematic
subckt UBFA_16 C S X Y Z inh_gnd inh_vdd
    g49 (Y X Z C S inh_gnd inh_vdd) FA1LL
ends UBFA_16
// End of subcircuit definition.

// Library name: 16BitMul
// Cell name: UBFA_15
// View name: schematic
subckt UBFA_15 C S X Y Z inh_gnd inh_vdd
    g49 (Y X Z C S inh_gnd inh_vdd) FA1LL
ends UBFA_15
// End of subcircuit definition.

// Library name: 16BitMul
// Cell name: UBFA_14
// View name: schematic
subckt UBFA_14 C S X Y Z inh_gnd inh_vdd
    g49 (Y X Z C S inh_gnd inh_vdd) FA1LL
ends UBFA_14
// End of subcircuit definition.

// Library name: 16BitMul
// Cell name: UBFA_13
// View name: schematic
subckt UBFA_13 C S X Y Z inh_gnd inh_vdd
    g49 (Y X Z C S inh_gnd inh_vdd) FA1LL
ends UBFA_13
// End of subcircuit definition.

// Library name: 16BitMul
// Cell name: UBFA_12
// View name: schematic
subckt UBFA_12 C S X Y Z inh_gnd inh_vdd
    g49 (Y X Z C S inh_gnd inh_vdd) FA1LL
ends UBFA_12
// End of subcircuit definition.

// Library name: 16BitMul
// Cell name: UBFA_3
// View name: schematic
subckt UBFA_3 C S X Y Z inh_gnd inh_vdd
    g49 (Y X Z C S inh_gnd inh_vdd) FA1LL
ends UBFA_3
// End of subcircuit definition.

// Library name: CORE9GPLL
// Cell name: HA1LL
// View name: cmos_sch
subckt HA1LL A B CO S inh_gnd inh_vdd
    MN5 (net34 net14 inh_gnd inh_gnd) ENLLGP_BS3JU w=0.3u l=0.13u nfing=1 \
        ncrsd=1 number=1 srcefirst=1 ngcon=1 mismatch=1 po2act=-1 lpe=0
    MN10 (S net0119 inh_gnd inh_gnd) ENLLGP_BS3JU w=0.585u l=0.13u nfing=1 \
        ncrsd=1 number=1 srcefirst=1 ngcon=1 mismatch=1 po2act=-1 lpe=0
    MN8 (CO net14 inh_gnd inh_gnd) ENLLGP_BS3JU w=0.585u l=0.13u nfing=1 \
        ncrsd=1 number=1 srcefirst=1 ngcon=1 mismatch=1 po2act=-1 lpe=0
    MN6 (net0119 B net34 inh_gnd) ENLLGP_BS3JU w=0.3u l=0.13u nfing=1 \
        ncrsd=1 number=1 srcefirst=1 ngcon=1 mismatch=1 po2act=-1 lpe=0
    MN4 (net0119 A net34 inh_gnd) ENLLGP_BS3JU w=0.3u l=0.13u nfing=1 \
        ncrsd=1 number=1 srcefirst=1 ngcon=1 mismatch=1 po2act=-1 lpe=0
    MN3 (net35 A inh_gnd inh_gnd) ENLLGP_BS3JU w=0.3u l=0.13u nfing=1 \
        ncrsd=1 number=1 srcefirst=1 ngcon=1 mismatch=1 po2act=-1 lpe=0
    MN2 (net14 B net35 inh_gnd) ENLLGP_BS3JU w=0.3u l=0.13u nfing=1 \
        ncrsd=1 number=1 srcefirst=1 ngcon=1 mismatch=1 po2act=-1 lpe=0
    MP10 (S net0119 inh_vdd inh_vdd) EPLLGP_BS3JU w=1.05u l=0.13u nfing=1 \
        ncrsd=1 number=1 srcefirst=1 ngcon=1 mismatch=1 po2act=-1 nbti=0 \
        lpe=0
    MP8 (CO net14 inh_vdd inh_vdd) EPLLGP_BS3JU w=1.05u l=0.13u nfing=1 \
        ncrsd=1 number=1 srcefirst=1 ngcon=1 mismatch=1 po2act=-1 nbti=0 \
        lpe=0
    MP6 (net0119 net14 inh_vdd inh_vdd) EPLLGP_BS3JU w=0.36u l=0.13u \
        nfing=1 ncrsd=1 number=1 srcefirst=1 ngcon=1 mismatch=1 po2act=-1 \
        nbti=0 lpe=0
    MP5 (net0119 A net0128 inh_vdd) EPLLGP_BS3JU w=0.63u l=0.13u nfing=1 \
        ncrsd=1 number=1 srcefirst=1 ngcon=1 mismatch=1 po2act=-1 nbti=0 \
        lpe=0
    MP4 (net0128 B inh_vdd inh_vdd) EPLLGP_BS3JU w=0.63u l=0.13u nfing=1 \
        ncrsd=1 number=1 srcefirst=1 ngcon=1 mismatch=1 po2act=-1 nbti=0 \
        lpe=0
    MP3 (net14 A inh_vdd inh_vdd) EPLLGP_BS3JU w=0.36u l=0.13u nfing=1 \
        ncrsd=1 number=1 srcefirst=1 ngcon=1 mismatch=1 po2act=-1 nbti=0 \
        lpe=0
    MP2 (net14 B inh_vdd inh_vdd) EPLLGP_BS3JU w=0.36u l=0.13u nfing=1 \
        ncrsd=1 number=1 srcefirst=1 ngcon=1 mismatch=1 po2act=-1 nbti=0 \
        lpe=0
ends HA1LL
// End of subcircuit definition.

// Library name: 16BitMul
// Cell name: UBHA_2
// View name: schematic
subckt UBHA_2 C S X Y inh_gnd inh_vdd
    g17 (X Y C S inh_gnd inh_vdd) HA1LL
ends UBHA_2
// End of subcircuit definition.

// Library name: 16BitMul
// Cell name: DADTR_30_0_29_1_2004
// View name: schematic
subckt DADTR_30_0_29_1_2004 S1_30 S1_29 S1_28 S1_27 S1_26 S1_25 S1_24 \
        S1_23 S1_22 S1_21 S1_20 S1_19 S1_18 S1_17 S1_16 S1_15 S1_14 S1_13 \
        S1_12 S1_11 S1_10 S1_9 S1_8 S1_7 S1_6 S1_5 S1_4 S1_3 S1_2 S1_1 \
        S1_0 S2_30 S2_29 S2_28 S2_27 S2_26 S2_25 S2_24 S2_23 S2_22 S2_21 \
        S2_20 S2_19 S2_18 S2_17 S2_16 S2_15 S2_14 S2_13 S2_12 S2_11 S2_10 \
        S2_9 S2_8 S2_7 S2_6 S2_5 S2_4 S2_3 S2_2 S2_1 PP0_30 PP0_29 PP0_28 \
        PP0_27 PP0_26 PP0_25 PP0_24 PP0_23 PP0_22 PP0_21 PP0_20 PP0_19 \
        PP0_18 PP0_17 PP0_16 PP0_15 PP0_14 PP0_13 PP0_12 PP0_11 PP0_10 \
        PP0_9 PP0_8 PP0_7 PP0_6 PP0_5 PP0_4 PP0_3 PP0_2 PP0_1 PP0_0 PP1_29 \
        PP1_28 PP1_27 PP1_26 PP1_25 PP1_24 PP1_23 PP1_22 PP1_21 PP1_20 \
        PP1_19 PP1_18 PP1_17 PP1_16 PP1_15 PP1_14 PP1_13 PP1_12 PP1_11 \
        PP1_10 PP1_9 PP1_8 PP1_7 PP1_6 PP1_5 PP1_4 PP1_3 PP1_2 PP1_1 \
        PP2_29 PP2_28 PP2_27 PP2_26 PP2_25 PP2_24 PP2_23 PP2_22 PP2_21 \
        PP2_20 PP2_19 PP2_18 PP2_17 PP2_16 PP2_15 PP2_14 PP2_13 PP2_12 \
        PP2_11 PP2_10 PP2_9 PP2_8 PP2_7 PP2_6 PP2_5 PP2_4 PP2_3 PP2_2 \
        inh_gnd inh_vdd
    U9 (S1_12 S2_11 PP0_11 PP1_11 PP2_11 inh_gnd inh_vdd) UBFA_11
    U8 (S1_11 S2_10 PP0_10 PP1_10 PP2_10 inh_gnd inh_vdd) UBFA_10
    U7 (S1_10 S2_9 PP0_9 PP1_9 PP2_9 inh_gnd inh_vdd) UBFA_9
    U6 (S1_9 S2_8 PP0_8 PP1_8 PP2_8 inh_gnd inh_vdd) UBFA_8
    U5 (S1_8 S2_7 PP0_7 PP1_7 PP2_7 inh_gnd inh_vdd) UBFA_7
    U4 (S1_7 S2_6 PP0_6 PP1_6 PP2_6 inh_gnd inh_vdd) UBFA_6
    U3 (S1_6 S2_5 PP0_5 PP1_5 PP2_5 inh_gnd inh_vdd) UBFA_5
    U27 (S2_30 S2_29 PP0_29 PP1_29 PP2_29 inh_gnd inh_vdd) UBFA_29
    U26 (S1_29 S2_28 PP0_28 PP1_28 PP2_28 inh_gnd inh_vdd) UBFA_28
    U25 (S1_28 S2_27 PP0_27 PP1_27 PP2_27 inh_gnd inh_vdd) UBFA_27
    U24 (S1_27 S2_26 PP0_26 PP1_26 PP2_26 inh_gnd inh_vdd) UBFA_26
    U23 (S1_26 S2_25 PP0_25 PP1_25 PP2_25 inh_gnd inh_vdd) UBFA_25
    U22 (S1_25 S2_24 PP0_24 PP1_24 PP2_24 inh_gnd inh_vdd) UBFA_24
    U21 (S1_24 S2_23 PP0_23 PP1_23 PP2_23 inh_gnd inh_vdd) UBFA_23
    U20 (S1_23 S2_22 PP0_22 PP1_22 PP2_22 inh_gnd inh_vdd) UBFA_22
    U2 (S1_5 S2_4 PP0_4 PP1_4 PP2_4 inh_gnd inh_vdd) UBFA_4
    U19 (S1_22 S2_21 PP0_21 PP1_21 PP2_21 inh_gnd inh_vdd) UBFA_21
    U18 (S1_21 S2_20 PP0_20 PP1_20 PP2_20 inh_gnd inh_vdd) UBFA_20
    U17 (S1_20 S2_19 PP0_19 PP1_19 PP2_19 inh_gnd inh_vdd) UBFA_19
    U16 (S1_19 S2_18 PP0_18 PP1_18 PP2_18 inh_gnd inh_vdd) UBFA_18
    U15 (S1_18 S2_17 PP0_17 PP1_17 PP2_17 inh_gnd inh_vdd) UBFA_17
    U14 (S1_17 S2_16 PP0_16 PP1_16 PP2_16 inh_gnd inh_vdd) UBFA_16
    U13 (S1_16 S2_15 PP0_15 PP1_15 PP2_15 inh_gnd inh_vdd) UBFA_15
    U12 (S1_15 S2_14 PP0_14 PP1_14 PP2_14 inh_gnd inh_vdd) UBFA_14
    U11 (S1_14 S2_13 PP0_13 PP1_13 PP2_13 inh_gnd inh_vdd) UBFA_13
    U10 (S1_13 S2_12 PP0_12 PP1_12 PP2_12 inh_gnd inh_vdd) UBFA_12
    U1 (S1_4 S2_3 PP0_3 PP1_3 PP2_3 inh_gnd inh_vdd) UBFA_3
    U0 (S1_3 S2_2 PP0_2 PP1_2 inh_gnd inh_vdd) UBHA_2
    Thru\#0 (GND! S2_1) iprobe
    Thru\#4 (GND! S1_30) iprobe
    Thru\#3 (GND! S1_2) iprobe
    Thru\#2 (GND! S1_1) iprobe
    Thru\#1 (GND! S1_0) iprobe
ends DADTR_30_0_29_1_2004
// End of subcircuit definition.

// Library name: 16BitMul
// Cell name: UBFA_12_348
// View name: schematic
subckt UBFA_12_348 C S X Y Z inh_gnd inh_vdd
    g49 (Y X Z C S inh_gnd inh_vdd) FA1LL
ends UBFA_12_348
// End of subcircuit definition.

// Library name: 16BitMul
// Cell name: UBFA_11_347
// View name: schematic
subckt UBFA_11_347 C S X Y Z inh_gnd inh_vdd
    g49 (Y X Z C S inh_gnd inh_vdd) FA1LL
ends UBFA_11_347
// End of subcircuit definition.

// Library name: 16BitMul
// Cell name: UBFA_10_346
// View name: schematic
subckt UBFA_10_346 C S X Y Z inh_gnd inh_vdd
    g49 (Y X Z C S inh_gnd inh_vdd) FA1LL
ends UBFA_10_346
// End of subcircuit definition.

// Library name: 16BitMul
// Cell name: UBFA_9_345
// View name: schematic
subckt UBFA_9_345 C S X Y Z inh_gnd inh_vdd
    g49 (Y X Z C S inh_gnd inh_vdd) FA1LL
ends UBFA_9_345
// End of subcircuit definition.

// Library name: 16BitMul
// Cell name: UBFA_8_344
// View name: schematic
subckt UBFA_8_344 C S X Y Z inh_gnd inh_vdd
    g49 (Y X Z C S inh_gnd inh_vdd) FA1LL
ends UBFA_8_344
// End of subcircuit definition.

// Library name: 16BitMul
// Cell name: UBFA_7_343
// View name: schematic
subckt UBFA_7_343 C S X Y Z inh_gnd inh_vdd
    g49 (Y X Z C S inh_gnd inh_vdd) FA1LL
ends UBFA_7_343
// End of subcircuit definition.

// Library name: 16BitMul
// Cell name: UBFA_6_342
// View name: schematic
subckt UBFA_6_342 C S X Y Z inh_gnd inh_vdd
    g49 (Y X Z C S inh_gnd inh_vdd) FA1LL
ends UBFA_6_342
// End of subcircuit definition.

// Library name: 16BitMul
// Cell name: UBFA_28_364
// View name: schematic
subckt UBFA_28_364 C S X Y Z inh_gnd inh_vdd
    g49 (Y X Z C S inh_gnd inh_vdd) FA1LL
ends UBFA_28_364
// End of subcircuit definition.

// Library name: 16BitMul
// Cell name: UBFA_27_363
// View name: schematic
subckt UBFA_27_363 C S X Y Z inh_gnd inh_vdd
    g49 (Y X Z C S inh_gnd inh_vdd) FA1LL
ends UBFA_27_363
// End of subcircuit definition.

// Library name: 16BitMul
// Cell name: UBFA_26_362
// View name: schematic
subckt UBFA_26_362 C S X Y Z inh_gnd inh_vdd
    g49 (Y X Z C S inh_gnd inh_vdd) FA1LL
ends UBFA_26_362
// End of subcircuit definition.

// Library name: 16BitMul
// Cell name: UBFA_25_361
// View name: schematic
subckt UBFA_25_361 C S X Y Z inh_gnd inh_vdd
    g49 (Y X Z C S inh_gnd inh_vdd) FA1LL
ends UBFA_25_361
// End of subcircuit definition.

// Library name: 16BitMul
// Cell name: UBFA_24_360
// View name: schematic
subckt UBFA_24_360 C S X Y Z inh_gnd inh_vdd
    g49 (Y X Z C S inh_gnd inh_vdd) FA1LL
ends UBFA_24_360
// End of subcircuit definition.

// Library name: 16BitMul
// Cell name: UBFA_23_359
// View name: schematic
subckt UBFA_23_359 C S X Y Z inh_gnd inh_vdd
    g49 (Y X Z C S inh_gnd inh_vdd) FA1LL
ends UBFA_23_359
// End of subcircuit definition.

// Library name: 16BitMul
// Cell name: UBFA_5_341
// View name: schematic
subckt UBFA_5_341 C S X Y Z inh_gnd inh_vdd
    g49 (Y X Z C S inh_gnd inh_vdd) FA1LL
ends UBFA_5_341
// End of subcircuit definition.

// Library name: 16BitMul
// Cell name: UBFA_22_358
// View name: schematic
subckt UBFA_22_358 C S X Y Z inh_gnd inh_vdd
    g49 (Y X Z C S inh_gnd inh_vdd) FA1LL
ends UBFA_22_358
// End of subcircuit definition.

// Library name: 16BitMul
// Cell name: UBFA_21_357
// View name: schematic
subckt UBFA_21_357 C S X Y Z inh_gnd inh_vdd
    g49 (Y X Z C S inh_gnd inh_vdd) FA1LL
ends UBFA_21_357
// End of subcircuit definition.

// Library name: 16BitMul
// Cell name: UBFA_20_356
// View name: schematic
subckt UBFA_20_356 C S X Y Z inh_gnd inh_vdd
    g49 (Y X Z C S inh_gnd inh_vdd) FA1LL
ends UBFA_20_356
// End of subcircuit definition.

// Library name: 16BitMul
// Cell name: UBFA_19_355
// View name: schematic
subckt UBFA_19_355 C S X Y Z inh_gnd inh_vdd
    g49 (Y X Z C S inh_gnd inh_vdd) FA1LL
ends UBFA_19_355
// End of subcircuit definition.

// Library name: 16BitMul
// Cell name: UBFA_18_354
// View name: schematic
subckt UBFA_18_354 C S X Y Z inh_gnd inh_vdd
    g49 (Y X Z C S inh_gnd inh_vdd) FA1LL
ends UBFA_18_354
// End of subcircuit definition.

// Library name: 16BitMul
// Cell name: UBFA_17_353
// View name: schematic
subckt UBFA_17_353 C S X Y Z inh_gnd inh_vdd
    g49 (Y X Z C S inh_gnd inh_vdd) FA1LL
ends UBFA_17_353
// End of subcircuit definition.

// Library name: 16BitMul
// Cell name: UBFA_16_352
// View name: schematic
subckt UBFA_16_352 C S X Y Z inh_gnd inh_vdd
    g49 (Y X Z C S inh_gnd inh_vdd) FA1LL
ends UBFA_16_352
// End of subcircuit definition.

// Library name: 16BitMul
// Cell name: UBFA_15_351
// View name: schematic
subckt UBFA_15_351 C S X Y Z inh_gnd inh_vdd
    g49 (Y X Z C S inh_gnd inh_vdd) FA1LL
ends UBFA_15_351
// End of subcircuit definition.

// Library name: 16BitMul
// Cell name: UBFA_14_350
// View name: schematic
subckt UBFA_14_350 C S X Y Z inh_gnd inh_vdd
    g49 (Y X Z C S inh_gnd inh_vdd) FA1LL
ends UBFA_14_350
// End of subcircuit definition.

// Library name: 16BitMul
// Cell name: UBFA_13_349
// View name: schematic
subckt UBFA_13_349 C S X Y Z inh_gnd inh_vdd
    g49 (Y X Z C S inh_gnd inh_vdd) FA1LL
ends UBFA_13_349
// End of subcircuit definition.

// Library name: 16BitMul
// Cell name: UBFA_4_340
// View name: schematic
subckt UBFA_4_340 C S X Y Z inh_gnd inh_vdd
    g49 (Y X Z C S inh_gnd inh_vdd) FA1LL
ends UBFA_4_340
// End of subcircuit definition.

// Library name: 16BitMul
// Cell name: UBHA_3
// View name: schematic
subckt UBHA_3 C S X Y inh_gnd inh_vdd
    g17 (X Y C S inh_gnd inh_vdd) HA1LL
ends UBHA_3
// End of subcircuit definition.

// Library name: 16BitMul
// Cell name: DADTR_30_0_29_1_2003
// View name: schematic
subckt DADTR_30_0_29_1_2003 S1_30 S1_29 S1_28 S1_27 S1_26 S1_25 S1_24 \
        S1_23 S1_22 S1_21 S1_20 S1_19 S1_18 S1_17 S1_16 S1_15 S1_14 S1_13 \
        S1_12 S1_11 S1_10 S1_9 S1_8 S1_7 S1_6 S1_5 S1_4 S1_3 S1_2 S1_1 \
        S1_0 S2_30 S2_29 S2_28 S2_27 S2_26 S2_25 S2_24 S2_23 S2_22 S2_21 \
        S2_20 S2_19 S2_18 S2_17 S2_16 S2_15 S2_14 S2_13 S2_12 S2_11 S2_10 \
        S2_9 S2_8 S2_7 S2_6 S2_5 S2_4 S2_3 S2_2 S2_1 PP0_30 PP0_29 PP0_28 \
        PP0_27 PP0_26 PP0_25 PP0_24 PP0_23 PP0_22 PP0_21 PP0_20 PP0_19 \
        PP0_18 PP0_17 PP0_16 PP0_15 PP0_14 PP0_13 PP0_12 PP0_11 PP0_10 \
        PP0_9 PP0_8 PP0_7 PP0_6 PP0_5 PP0_4 PP0_3 PP0_2 PP0_1 PP0_0 PP1_29 \
        PP1_28 PP1_27 PP1_26 PP1_25 PP1_24 PP1_23 PP1_22 PP1_21 PP1_20 \
        PP1_19 PP1_18 PP1_17 PP1_16 PP1_15 PP1_14 PP1_13 PP1_12 PP1_11 \
        PP1_10 PP1_9 PP1_8 PP1_7 PP1_6 PP1_5 PP1_4 PP1_3 PP1_2 PP1_1 \
        PP2_28 PP2_27 PP2_26 PP2_25 PP2_24 PP2_23 PP2_22 PP2_21 PP2_20 \
        PP2_19 PP2_18 PP2_17 PP2_16 PP2_15 PP2_14 PP2_13 PP2_12 PP2_11 \
        PP2_10 PP2_9 PP2_8 PP2_7 PP2_6 PP2_5 PP2_4 PP2_3 PP2_2 PP3_28 \
        PP3_27 PP3_26 PP3_25 PP3_24 PP3_23 PP3_22 PP3_21 PP3_20 PP3_19 \
        PP3_18 PP3_17 PP3_16 PP3_15 PP3_14 PP3_13 PP3_12 PP3_11 PP3_10 \
        PP3_9 PP3_8 PP3_7 PP3_6 PP3_5 PP3_4 PP3_3 inh_gnd inh_vdd
    U34 (UNCONNECTED S1_29 S1_28 S1_27 S1_26 S1_25 S1_24 S1_23 S1_22 S1_21 \
        S1_20 S1_19 S1_18 S1_17 S1_16 S1_15 S1_14 S1_13 S1_12 S1_11 S1_10 \
        S1_9 S1_8 S1_7 S1_6 S1_5 S1_4 S1_3 UNCONNECTED0 UNCONNECTED1 \
        UNCONNECTED2 S2_30 S2_29 S2_28 S2_27 S2_26 S2_25 S2_24 S2_23 S2_22 \
        S2_21 S2_20 S2_19 S2_18 S2_17 S2_16 S2_15 S2_14 S2_13 S2_12 S2_11 \
        S2_10 S2_9 S2_8 S2_7 S2_6 S2_5 S2_4 S2_3 S2_2 UNCONNECTED3 GND! \
        PP0_29 PP3_28 PP3_27 PP3_26 PP3_25 PP3_24 PP3_23 PP3_22 PP3_21 \
        PP3_20 PP3_19 PP3_18 PP3_17 PP3_16 PP3_15 PP3_14 PP3_13 PP3_12 \
        PP3_11 PP3_10 PP3_9 PP3_8 PP3_7 PP3_6 PP3_5 PP3_4 PP2_3 PP0_2 GND! \
        GND! PP1_29 W1_28 W1_27 W1_26 W1_25 W1_24 W1_23 W1_22 W1_21 W1_20 \
        W1_19 W1_18 W1_17 W1_16 W1_15 W1_14 W1_13 W1_12 W1_11 W1_10 W1_9 \
        W1_8 W1_7 W1_6 W1_5 W1_4 PP3_3 PP1_2 GND! W2_29 W2_28 W2_27 W2_26 \
        W2_25 W2_24 W2_23 W2_22 W2_21 W2_20 W2_19 W2_18 W2_17 W2_16 W2_15 \
        W2_14 W2_13 W2_12 W2_11 W2_10 W2_9 W2_8 W2_7 W2_6 W2_5 W2_4 W2_3 \
        GND! inh_gnd inh_vdd) DADTR_30_0_29_1_2004
    Thru\#0 (GND! S2_1) iprobe
    Thru\#4 (GND! S1_30) iprobe
    Thru\#3 (GND! S1_2) iprobe
    Thru\#2 (GND! S1_1) iprobe
    Thru\#1 (GND! S1_0) iprobe
    U9 (W1_13 W2_12 PP0_12 PP1_12 PP2_12 inh_gnd inh_vdd) UBFA_12_348
    U8 (W1_12 W2_11 PP0_11 PP1_11 PP2_11 inh_gnd inh_vdd) UBFA_11_347
    U7 (W1_11 W2_10 PP0_10 PP1_10 PP2_10 inh_gnd inh_vdd) UBFA_10_346
    U6 (W1_10 W2_9 PP0_9 PP1_9 PP2_9 inh_gnd inh_vdd) UBFA_9_345
    U5 (W1_9 W2_8 PP0_8 PP1_8 PP2_8 inh_gnd inh_vdd) UBFA_8_344
    U4 (W1_8 W2_7 PP0_7 PP1_7 PP2_7 inh_gnd inh_vdd) UBFA_7_343
    U3 (W1_7 W2_6 PP0_6 PP1_6 PP2_6 inh_gnd inh_vdd) UBFA_6_342
    U25 (W2_29 W2_28 PP0_28 PP1_28 PP2_28 inh_gnd inh_vdd) UBFA_28_364
    U24 (W1_28 W2_27 PP0_27 PP1_27 PP2_27 inh_gnd inh_vdd) UBFA_27_363
    U23 (W1_27 W2_26 PP0_26 PP1_26 PP2_26 inh_gnd inh_vdd) UBFA_26_362
    U22 (W1_26 W2_25 PP0_25 PP1_25 PP2_25 inh_gnd inh_vdd) UBFA_25_361
    U21 (W1_25 W2_24 PP0_24 PP1_24 PP2_24 inh_gnd inh_vdd) UBFA_24_360
    U20 (W1_24 W2_23 PP0_23 PP1_23 PP2_23 inh_gnd inh_vdd) UBFA_23_359
    U2 (W1_6 W2_5 PP0_5 PP1_5 PP2_5 inh_gnd inh_vdd) UBFA_5_341
    U19 (W1_23 W2_22 PP0_22 PP1_22 PP2_22 inh_gnd inh_vdd) UBFA_22_358
    U18 (W1_22 W2_21 PP0_21 PP1_21 PP2_21 inh_gnd inh_vdd) UBFA_21_357
    U17 (W1_21 W2_20 PP0_20 PP1_20 PP2_20 inh_gnd inh_vdd) UBFA_20_356
    U16 (W1_20 W2_19 PP0_19 PP1_19 PP2_19 inh_gnd inh_vdd) UBFA_19_355
    U15 (W1_19 W2_18 PP0_18 PP1_18 PP2_18 inh_gnd inh_vdd) UBFA_18_354
    U14 (W1_18 W2_17 PP0_17 PP1_17 PP2_17 inh_gnd inh_vdd) UBFA_17_353
    U13 (W1_17 W2_16 PP0_16 PP1_16 PP2_16 inh_gnd inh_vdd) UBFA_16_352
    U12 (W1_16 W2_15 PP0_15 PP1_15 PP2_15 inh_gnd inh_vdd) UBFA_15_351
    U11 (W1_15 W2_14 PP0_14 PP1_14 PP2_14 inh_gnd inh_vdd) UBFA_14_350
    U10 (W1_14 W2_13 PP0_13 PP1_13 PP2_13 inh_gnd inh_vdd) UBFA_13_349
    U1 (W1_5 W2_4 PP0_4 PP1_4 PP2_4 inh_gnd inh_vdd) UBFA_4_340
    U0 (W1_4 W2_3 PP0_3 PP1_3 inh_gnd inh_vdd) UBHA_3
ends DADTR_30_0_29_1_2003
// End of subcircuit definition.

// Library name: 16BitMul
// Cell name: UBFA_9_376
// View name: schematic
subckt UBFA_9_376 C S X Y Z inh_gnd inh_vdd
    g49 (Y X Z C S inh_gnd inh_vdd) FA1LL
ends UBFA_9_376
// End of subcircuit definition.

// Library name: 16BitMul
// Cell name: UBFA_8_375
// View name: schematic
subckt UBFA_8_375 C S X Y Z inh_gnd inh_vdd
    g49 (Y X Z C S inh_gnd inh_vdd) FA1LL
ends UBFA_8_375
// End of subcircuit definition.

// Library name: 16BitMul
// Cell name: UBFA_8_374
// View name: schematic
subckt UBFA_8_374 C S X Y Z inh_gnd inh_vdd
    g49 (Y X Z C S inh_gnd inh_vdd) FA1LL
ends UBFA_8_374
// End of subcircuit definition.

// Library name: 16BitMul
// Cell name: UBFA_7_373
// View name: schematic
subckt UBFA_7_373 C S X Y Z inh_gnd inh_vdd
    g49 (Y X Z C S inh_gnd inh_vdd) FA1LL
ends UBFA_7_373
// End of subcircuit definition.

// Library name: 16BitMul
// Cell name: UBFA_7_372
// View name: schematic
subckt UBFA_7_372 C S X Y Z inh_gnd inh_vdd
    g49 (Y X Z C S inh_gnd inh_vdd) FA1LL
ends UBFA_7_372
// End of subcircuit definition.

// Library name: 16BitMul
// Cell name: UBFA_27_412
// View name: schematic
subckt UBFA_27_412 C S X Y Z inh_gnd inh_vdd
    g49 (Y X Z C S inh_gnd inh_vdd) FA1LL
ends UBFA_27_412
// End of subcircuit definition.

// Library name: 16BitMul
// Cell name: UBFA_26_411
// View name: schematic
subckt UBFA_26_411 C S X Y Z inh_gnd inh_vdd
    g49 (Y X Z C S inh_gnd inh_vdd) FA1LL
ends UBFA_26_411
// End of subcircuit definition.

// Library name: 16BitMul
// Cell name: UBFA_26_410
// View name: schematic
subckt UBFA_26_410 C S X Y Z inh_gnd inh_vdd
    g49 (Y X Z C S inh_gnd inh_vdd) FA1LL
ends UBFA_26_410
// End of subcircuit definition.

// Library name: 16BitMul
// Cell name: UBFA_25_409
// View name: schematic
subckt UBFA_25_409 C S X Y Z inh_gnd inh_vdd
    g49 (Y X Z C S inh_gnd inh_vdd) FA1LL
ends UBFA_25_409
// End of subcircuit definition.

// Library name: 16BitMul
// Cell name: UBFA_25_408
// View name: schematic
subckt UBFA_25_408 C S X Y Z inh_gnd inh_vdd
    g49 (Y X Z C S inh_gnd inh_vdd) FA1LL
ends UBFA_25_408
// End of subcircuit definition.

// Library name: 16BitMul
// Cell name: UBFA_24_407
// View name: schematic
subckt UBFA_24_407 C S X Y Z inh_gnd inh_vdd
    g49 (Y X Z C S inh_gnd inh_vdd) FA1LL
ends UBFA_24_407
// End of subcircuit definition.

// Library name: 16BitMul
// Cell name: UBFA_6_371
// View name: schematic
subckt UBFA_6_371 C S X Y Z inh_gnd inh_vdd
    g49 (Y X Z C S inh_gnd inh_vdd) FA1LL
ends UBFA_6_371
// End of subcircuit definition.

// Library name: 16BitMul
// Cell name: UBFA_24_406
// View name: schematic
subckt UBFA_24_406 C S X Y Z inh_gnd inh_vdd
    g49 (Y X Z C S inh_gnd inh_vdd) FA1LL
ends UBFA_24_406
// End of subcircuit definition.

// Library name: 16BitMul
// Cell name: UBFA_23_405
// View name: schematic
subckt UBFA_23_405 C S X Y Z inh_gnd inh_vdd
    g49 (Y X Z C S inh_gnd inh_vdd) FA1LL
ends UBFA_23_405
// End of subcircuit definition.

// Library name: 16BitMul
// Cell name: UBFA_23_404
// View name: schematic
subckt UBFA_23_404 C S X Y Z inh_gnd inh_vdd
    g49 (Y X Z C S inh_gnd inh_vdd) FA1LL
ends UBFA_23_404
// End of subcircuit definition.

// Library name: 16BitMul
// Cell name: UBFA_22_403
// View name: schematic
subckt UBFA_22_403 C S X Y Z inh_gnd inh_vdd
    g49 (Y X Z C S inh_gnd inh_vdd) FA1LL
ends UBFA_22_403
// End of subcircuit definition.

// Library name: 16BitMul
// Cell name: UBFA_22_402
// View name: schematic
subckt UBFA_22_402 C S X Y Z inh_gnd inh_vdd
    g49 (Y X Z C S inh_gnd inh_vdd) FA1LL
ends UBFA_22_402
// End of subcircuit definition.

// Library name: 16BitMul
// Cell name: UBFA_21_401
// View name: schematic
subckt UBFA_21_401 C S X Y Z inh_gnd inh_vdd
    g49 (Y X Z C S inh_gnd inh_vdd) FA1LL
ends UBFA_21_401
// End of subcircuit definition.

// Library name: 16BitMul
// Cell name: UBFA_21_400
// View name: schematic
subckt UBFA_21_400 C S X Y Z inh_gnd inh_vdd
    g49 (Y X Z C S inh_gnd inh_vdd) FA1LL
ends UBFA_21_400
// End of subcircuit definition.
