// Generated for: spectre
// Generated on: Nov  8 08:47:52 2010
// Design library name: 64BitKSA
// Design cell name: UBKSA_63_0_63_0
// Design view name: schematic
simulator lang=spectre
global 0 vdd! GND!

// Library name: CORE9GPLL
// Cell name: ND2LL
// View name: cmos_sch
subckt ND2LL A B Z inh_gnd inh_vdd
    MP1 (Z B inh_vdd inh_vdd) EPLLGP_BS3JU w=0.77u l=0.13u nfing=1 ncrsd=1 \
        number=1 srcefirst=1 ngcon=1 mismatch=1 po2act=-1 nbti=0 lpe=0
    MP0 (Z A inh_vdd inh_vdd) EPLLGP_BS3JU w=0.77u l=0.13u nfing=1 ncrsd=1 \
        number=1 srcefirst=1 ngcon=1 mismatch=1 po2act=-1 nbti=0 lpe=0
    MN1 (Z B net15 inh_gnd) ENLLGP_BS3JU w=0.64u l=0.13u nfing=1 ncrsd=1 \
        number=1 srcefirst=1 ngcon=1 mismatch=1 po2act=-1 lpe=0
    MN0 (net15 A inh_gnd inh_gnd) ENLLGP_BS3JU w=0.64u l=0.13u nfing=1 \
        ncrsd=1 number=1 srcefirst=1 ngcon=1 mismatch=1 po2act=-1 lpe=0
ends ND2LL
// End of subcircuit definition.

// Library name: CORE9GPLL
// Cell name: AN2LL
// View name: cmos_sch
subckt AN2LL A B Z inh_gnd inh_vdd
    MP2 (Z net038 inh_vdd inh_vdd) EPLLGP_BS3JU w=1.05u l=0.13u nfing=1 \
        ncrsd=1 number=1 srcefirst=1 ngcon=1 mismatch=1 po2act=-1 nbti=0 \
        lpe=0
    MP1 (net038 B inh_vdd inh_vdd) EPLLGP_BS3JU w=0.38u l=0.13u nfing=1 \
        ncrsd=1 number=1 srcefirst=1 ngcon=1 mismatch=1 po2act=-1 nbti=0 \
        lpe=0
    MP0 (net038 A inh_vdd inh_vdd) EPLLGP_BS3JU w=0.38u l=0.13u nfing=1 \
        ncrsd=1 number=1 srcefirst=1 ngcon=1 mismatch=1 po2act=-1 nbti=0 \
        lpe=0
    MN2 (Z net038 inh_gnd inh_gnd) ENLLGP_BS3JU w=0.585u l=0.13u nfing=1 \
        ncrsd=1 number=1 srcefirst=1 ngcon=1 mismatch=1 po2act=-1 lpe=0
    MN1 (net038 B net12 inh_gnd) ENLLGP_BS3JU w=0.32u l=0.13u nfing=1 \
        ncrsd=1 number=1 srcefirst=1 ngcon=1 mismatch=1 po2act=-1 lpe=0
    MN0 (net12 A inh_gnd inh_gnd) ENLLGP_BS3JU w=0.32u l=0.13u nfing=1 \
        ncrsd=1 number=1 srcefirst=1 ngcon=1 mismatch=1 po2act=-1 lpe=0
ends AN2LL
// End of subcircuit definition.

// Library name: CORE9GPLL
// Cell name: ND2ALL
// View name: cmos_sch
subckt ND2ALL A B Z inh_gnd inh_vdd
    MP4 (net025 A inh_vdd inh_vdd) EPLLGP_BS3JU w=0.3u l=0.13u nfing=1 \
        ncrsd=1 number=1 srcefirst=1 ngcon=1 mismatch=1 po2act=-1 nbti=0 \
        lpe=0
    MP1 (Z B inh_vdd inh_vdd) EPLLGP_BS3JU w=0.77u l=0.13u nfing=1 ncrsd=1 \
        number=1 srcefirst=1 ngcon=1 mismatch=1 po2act=-1 nbti=0 lpe=0
    MP0 (Z net025 inh_vdd inh_vdd) EPLLGP_BS3JU w=0.77u l=0.13u nfing=1 \
        ncrsd=1 number=1 srcefirst=1 ngcon=1 mismatch=1 po2act=-1 nbti=0 \
        lpe=0
    MN4 (net025 A inh_gnd inh_gnd) ENLLGP_BS3JU w=0.15u l=0.13u nfing=1 \
        ncrsd=1 number=1 srcefirst=1 ngcon=1 mismatch=1 po2act=-1 lpe=0
    MN1 (Z B net12 inh_gnd) ENLLGP_BS3JU w=0.64u l=0.13u nfing=1 ncrsd=1 \
        number=1 srcefirst=1 ngcon=1 mismatch=1 po2act=-1 lpe=0
    MN0 (net12 net025 inh_gnd inh_gnd) ENLLGP_BS3JU w=0.64u l=0.13u \
        nfing=1 ncrsd=1 number=1 srcefirst=1 ngcon=1 mismatch=1 po2act=-1 \
        lpe=0
ends ND2ALL
// End of subcircuit definition.

// Library name: 64BitKSA
// Cell name: CarryOperator_95
// View name: schematic
subckt CarryOperator_95 Go Po Gi1 Pi1 Gi2 Pi2 inh_gnd inh_vdd
    g18 (Gi2 Pi1 n_1 inh_gnd inh_vdd) ND2LL
    g19 (Pi1 Pi2 Po inh_gnd inh_vdd) AN2LL
    g17 (Gi1 n_1 Go inh_gnd inh_vdd) ND2ALL
ends CarryOperator_95
// End of subcircuit definition.

// Library name: CORE9GPLL
// Cell name: HA1LL
// View name: cmos_sch
subckt HA1LL A B CO S inh_gnd inh_vdd
    MN5 (net34 net14 inh_gnd inh_gnd) ENLLGP_BS3JU w=0.3u l=0.13u nfing=1 \
        ncrsd=1 number=1 srcefirst=1 ngcon=1 mismatch=1 po2act=-1 lpe=0
    MN10 (S net0119 inh_gnd inh_gnd) ENLLGP_BS3JU w=0.585u l=0.13u nfing=1 \
        ncrsd=1 number=1 srcefirst=1 ngcon=1 mismatch=1 po2act=-1 lpe=0
    MN8 (CO net14 inh_gnd inh_gnd) ENLLGP_BS3JU w=0.585u l=0.13u nfing=1 \
        ncrsd=1 number=1 srcefirst=1 ngcon=1 mismatch=1 po2act=-1 lpe=0
    MN6 (net0119 B net34 inh_gnd) ENLLGP_BS3JU w=0.3u l=0.13u nfing=1 \
        ncrsd=1 number=1 srcefirst=1 ngcon=1 mismatch=1 po2act=-1 lpe=0
    MN4 (net0119 A net34 inh_gnd) ENLLGP_BS3JU w=0.3u l=0.13u nfing=1 \
        ncrsd=1 number=1 srcefirst=1 ngcon=1 mismatch=1 po2act=-1 lpe=0
    MN3 (net35 A inh_gnd inh_gnd) ENLLGP_BS3JU w=0.3u l=0.13u nfing=1 \
        ncrsd=1 number=1 srcefirst=1 ngcon=1 mismatch=1 po2act=-1 lpe=0
    MN2 (net14 B net35 inh_gnd) ENLLGP_BS3JU w=0.3u l=0.13u nfing=1 \
        ncrsd=1 number=1 srcefirst=1 ngcon=1 mismatch=1 po2act=-1 lpe=0
    MP10 (S net0119 inh_vdd inh_vdd) EPLLGP_BS3JU w=1.05u l=0.13u nfing=1 \
        ncrsd=1 number=1 srcefirst=1 ngcon=1 mismatch=1 po2act=-1 nbti=0 \
        lpe=0
    MP8 (CO net14 inh_vdd inh_vdd) EPLLGP_BS3JU w=1.05u l=0.13u nfing=1 \
        ncrsd=1 number=1 srcefirst=1 ngcon=1 mismatch=1 po2act=-1 nbti=0 \
        lpe=0
    MP6 (net0119 net14 inh_vdd inh_vdd) EPLLGP_BS3JU w=0.36u l=0.13u \
        nfing=1 ncrsd=1 number=1 srcefirst=1 ngcon=1 mismatch=1 po2act=-1 \
        nbti=0 lpe=0
    MP5 (net0119 A net0128 inh_vdd) EPLLGP_BS3JU w=0.63u l=0.13u nfing=1 \
        ncrsd=1 number=1 srcefirst=1 ngcon=1 mismatch=1 po2act=-1 nbti=0 \
        lpe=0
    MP4 (net0128 B inh_vdd inh_vdd) EPLLGP_BS3JU w=0.63u l=0.13u nfing=1 \
        ncrsd=1 number=1 srcefirst=1 ngcon=1 mismatch=1 po2act=-1 nbti=0 \
        lpe=0
    MP3 (net14 A inh_vdd inh_vdd) EPLLGP_BS3JU w=0.36u l=0.13u nfing=1 \
        ncrsd=1 number=1 srcefirst=1 ngcon=1 mismatch=1 po2act=-1 nbti=0 \
        lpe=0
    MP2 (net14 B inh_vdd inh_vdd) EPLLGP_BS3JU w=0.36u l=0.13u nfing=1 \
        ncrsd=1 number=1 srcefirst=1 ngcon=1 mismatch=1 po2act=-1 nbti=0 \
        lpe=0
ends HA1LL
// End of subcircuit definition.

// Library name: 64BitKSA
// Cell name: GPGenerator_32
// View name: schematic
subckt GPGenerator_32 Go Po A B inh_gnd inh_vdd
    g17 (A B Go Po inh_gnd inh_vdd) HA1LL
ends GPGenerator_32
// End of subcircuit definition.

// Library name: 64BitKSA
// Cell name: CarryOperator_98
// View name: schematic
subckt CarryOperator_98 Go Po Gi1 Pi1 Gi2 Pi2 inh_gnd inh_vdd
    g18 (Gi2 Pi1 n_1 inh_gnd inh_vdd) ND2LL
    g19 (Pi1 Pi2 Po inh_gnd inh_vdd) AN2LL
    g17 (Gi1 n_1 Go inh_gnd inh_vdd) ND2ALL
ends CarryOperator_98
// End of subcircuit definition.

// Library name: 64BitKSA
// Cell name: GPGenerator_36
// View name: schematic
subckt GPGenerator_36 Go Po A B inh_gnd inh_vdd
    g17 (A B Go Po inh_gnd inh_vdd) HA1LL
ends GPGenerator_36
// End of subcircuit definition.

// Library name: 64BitKSA
// Cell name: GPGenerator_35
// View name: schematic
subckt GPGenerator_35 Go Po A B inh_gnd inh_vdd
    g17 (A B Go Po inh_gnd inh_vdd) HA1LL
ends GPGenerator_35
// End of subcircuit definition.

// Library name: 64BitKSA
// Cell name: CarryOperator_99
// View name: schematic
subckt CarryOperator_99 Go Po Gi1 Pi1 Gi2 Pi2 inh_gnd inh_vdd
    g18 (Gi2 Pi1 n_1 inh_gnd inh_vdd) ND2LL
    g19 (Pi1 Pi2 Po inh_gnd inh_vdd) AN2LL
    g17 (Gi1 n_1 Go inh_gnd inh_vdd) ND2ALL
ends CarryOperator_99
// End of subcircuit definition.

// Library name: 64BitKSA
// Cell name: GPGenerator_37
// View name: schematic
subckt GPGenerator_37 Go Po A B inh_gnd inh_vdd
    g17 (A B Go Po inh_gnd inh_vdd) HA1LL
ends GPGenerator_37
// End of subcircuit definition.

// Library name: 64BitKSA
// Cell name: CarryOperator_100
// View name: schematic
subckt CarryOperator_100 Go Po Gi1 Pi1 Gi2 Pi2 inh_gnd inh_vdd
    g18 (Gi2 Pi1 n_1 inh_gnd inh_vdd) ND2LL
    g19 (Pi1 Pi2 Po inh_gnd inh_vdd) AN2LL
    g17 (Gi1 n_1 Go inh_gnd inh_vdd) ND2ALL
ends CarryOperator_100
// End of subcircuit definition.

// Library name: 64BitKSA
// Cell name: GPGenerator_38
// View name: schematic
subckt GPGenerator_38 Go Po A B inh_gnd inh_vdd
    g17 (A B Go Po inh_gnd inh_vdd) HA1LL
ends GPGenerator_38
// End of subcircuit definition.

// Library name: 64BitKSA
// Cell name: CarryOperator_101
// View name: schematic
subckt CarryOperator_101 Go Po Gi1 Pi1 Gi2 Pi2 inh_gnd inh_vdd
    g18 (Gi2 Pi1 n_1 inh_gnd inh_vdd) ND2LL
    g19 (Pi1 Pi2 Po inh_gnd inh_vdd) AN2LL
    g17 (Gi1 n_1 Go inh_gnd inh_vdd) ND2ALL
ends CarryOperator_101
// End of subcircuit definition.

// Library name: 64BitKSA
// Cell name: GPGenerator_39
// View name: schematic
subckt GPGenerator_39 Go Po A B inh_gnd inh_vdd
    g17 (A B Go Po inh_gnd inh_vdd) HA1LL
ends GPGenerator_39
// End of subcircuit definition.

// Library name: 64BitKSA
// Cell name: CarryOperator_102
// View name: schematic
subckt CarryOperator_102 Go Po Gi1 Pi1 Gi2 Pi2 inh_gnd inh_vdd
    g18 (Gi2 Pi1 n_1 inh_gnd inh_vdd) ND2LL
    g19 (Pi1 Pi2 Po inh_gnd inh_vdd) AN2LL
    g17 (Gi1 n_1 Go inh_gnd inh_vdd) ND2ALL
ends CarryOperator_102
// End of subcircuit definition.

// Library name: 64BitKSA
// Cell name: GPGenerator_40
// View name: schematic
subckt GPGenerator_40 Go Po A B inh_gnd inh_vdd
    g17 (A B Go Po inh_gnd inh_vdd) HA1LL
ends GPGenerator_40
// End of subcircuit definition.

// Library name: 64BitKSA
// Cell name: CarryOperator_103
// View name: schematic
subckt CarryOperator_103 Go Po Gi1 Pi1 Gi2 Pi2 inh_gnd inh_vdd
    g18 (Gi2 Pi1 n_1 inh_gnd inh_vdd) ND2LL
    g19 (Pi1 Pi2 Po inh_gnd inh_vdd) AN2LL
    g17 (Gi1 n_1 Go inh_gnd inh_vdd) ND2ALL
ends CarryOperator_103
// End of subcircuit definition.

// Library name: 64BitKSA
// Cell name: GPGenerator_41
// View name: schematic
subckt GPGenerator_41 Go Po A B inh_gnd inh_vdd
    g17 (A B Go Po inh_gnd inh_vdd) HA1LL
ends GPGenerator_41
// End of subcircuit definition.

// Library name: 64BitKSA
// Cell name: CarryOperator_104
// View name: schematic
subckt CarryOperator_104 Go Po Gi1 Pi1 Gi2 Pi2 inh_gnd inh_vdd
    g18 (Gi2 Pi1 n_1 inh_gnd inh_vdd) ND2LL
    g19 (Pi1 Pi2 Po inh_gnd inh_vdd) AN2LL
    g17 (Gi1 n_1 Go inh_gnd inh_vdd) ND2ALL
ends CarryOperator_104
// End of subcircuit definition.

// Library name: 64BitKSA
// Cell name: GPGenerator_42
// View name: schematic
subckt GPGenerator_42 Go Po A B inh_gnd inh_vdd
    g17 (A B Go Po inh_gnd inh_vdd) HA1LL
ends GPGenerator_42
// End of subcircuit definition.

// Library name: 64BitKSA
// Cell name: CarryOperator_97
// View name: schematic
subckt CarryOperator_97 Go Po Gi1 Pi1 Gi2 Pi2 inh_gnd inh_vdd
    g18 (Gi2 Pi1 n_1 inh_gnd inh_vdd) ND2LL
    g19 (Pi1 Pi2 Po inh_gnd inh_vdd) AN2LL
    g17 (Gi1 n_1 Go inh_gnd inh_vdd) ND2ALL
ends CarryOperator_97
// End of subcircuit definition.

// Library name: 64BitKSA
// Cell name: GPGenerator_34
// View name: schematic
subckt GPGenerator_34 Go Po A B inh_gnd inh_vdd
    g17 (A B Go Po inh_gnd inh_vdd) HA1LL
ends GPGenerator_34
// End of subcircuit definition.

// Library name: 64BitKSA
// Cell name: CarryOperator_96
// View name: schematic
subckt CarryOperator_96 Go Po Gi1 Pi1 Gi2 Pi2 inh_gnd inh_vdd
    g18 (Gi2 Pi1 n_1 inh_gnd inh_vdd) ND2LL
    g19 (Pi1 Pi2 Po inh_gnd inh_vdd) AN2LL
    g17 (Gi1 n_1 Go inh_gnd inh_vdd) ND2ALL
ends CarryOperator_96
// End of subcircuit definition.

// Library name: 64BitKSA
// Cell name: GPGenerator_33
// View name: schematic
subckt GPGenerator_33 Go Po A B inh_gnd inh_vdd
    g17 (A B Go Po inh_gnd inh_vdd) HA1LL
ends GPGenerator_33
// End of subcircuit definition.

// Library name: 64BitKSA
// Cell name: CarryOperator_105
// View name: schematic
subckt CarryOperator_105 Go Po Gi1 Pi1 Gi2 Pi2 inh_gnd inh_vdd
    g18 (Gi2 Pi1 n_1 inh_gnd inh_vdd) ND2LL
    g19 (Pi1 Pi2 Po inh_gnd inh_vdd) AN2LL
    g17 (Gi1 n_1 Go inh_gnd inh_vdd) ND2ALL
ends CarryOperator_105
// End of subcircuit definition.

// Library name: 64BitKSA
// Cell name: GPGenerator_43
// View name: schematic
subckt GPGenerator_43 Go Po A B inh_gnd inh_vdd
    g17 (A B Go Po inh_gnd inh_vdd) HA1LL
ends GPGenerator_43
// End of subcircuit definition.

// Library name: 64BitKSA
// Cell name: CarryOperator_106
// View name: schematic
subckt CarryOperator_106 Go Po Gi1 Pi1 Gi2 Pi2 inh_gnd inh_vdd
    g18 (Gi2 Pi1 n_1 inh_gnd inh_vdd) ND2LL
    g19 (Pi1 Pi2 Po inh_gnd inh_vdd) AN2LL
    g17 (Gi1 n_1 Go inh_gnd inh_vdd) ND2ALL
ends CarryOperator_106
// End of subcircuit definition.

// Library name: 64BitKSA
// Cell name: GPGenerator_44
// View name: schematic
subckt GPGenerator_44 Go Po A B inh_gnd inh_vdd
    g17 (A B Go Po inh_gnd inh_vdd) HA1LL
ends GPGenerator_44
// End of subcircuit definition.

// Library name: 64BitKSA
// Cell name: CarryOperator_107
// View name: schematic
subckt CarryOperator_107 Go Po Gi1 Pi1 Gi2 Pi2 inh_gnd inh_vdd
    g18 (Gi2 Pi1 n_1 inh_gnd inh_vdd) ND2LL
    g19 (Pi1 Pi2 Po inh_gnd inh_vdd) AN2LL
    g17 (Gi1 n_1 Go inh_gnd inh_vdd) ND2ALL
ends CarryOperator_107
// End of subcircuit definition.

// Library name: 64BitKSA
// Cell name: GPGenerator_45
// View name: schematic
subckt GPGenerator_45 Go Po A B inh_gnd inh_vdd
    g17 (A B Go Po inh_gnd inh_vdd) HA1LL
ends GPGenerator_45
// End of subcircuit definition.

// Library name: 64BitKSA
// Cell name: CarryOperator_108
// View name: schematic
subckt CarryOperator_108 Go Po Gi1 Pi1 Gi2 Pi2 inh_gnd inh_vdd
    g18 (Gi2 Pi1 n_1 inh_gnd inh_vdd) ND2LL
    g19 (Pi1 Pi2 Po inh_gnd inh_vdd) AN2LL
    g17 (Gi1 n_1 Go inh_gnd inh_vdd) ND2ALL
ends CarryOperator_108
// End of subcircuit definition.

// Library name: 64BitKSA
// Cell name: GPGenerator_46
// View name: schematic
subckt GPGenerator_46 Go Po A B inh_gnd inh_vdd
    g17 (A B Go Po inh_gnd inh_vdd) HA1LL
ends GPGenerator_46
// End of subcircuit definition.

// Library name: 64BitKSA
// Cell name: CarryOperator_109
// View name: schematic
subckt CarryOperator_109 Go Po Gi1 Pi1 Gi2 Pi2 inh_gnd inh_vdd
    g18 (Gi2 Pi1 n_1 inh_gnd inh_vdd) ND2LL
    g19 (Pi1 Pi2 Po inh_gnd inh_vdd) AN2LL
    g17 (Gi1 n_1 Go inh_gnd inh_vdd) ND2ALL
ends CarryOperator_109
// End of subcircuit definition.

// Library name: 64BitKSA
// Cell name: GPGenerator_47
// View name: schematic
subckt GPGenerator_47 Go Po A B inh_gnd inh_vdd
    g17 (A B Go Po inh_gnd inh_vdd) HA1LL
ends GPGenerator_47
// End of subcircuit definition.

// Library name: 64BitKSA
// Cell name: CarryOperator_110
// View name: schematic
subckt CarryOperator_110 Go Po Gi1 Pi1 Gi2 Pi2 inh_gnd inh_vdd
    g18 (Gi2 Pi1 n_1 inh_gnd inh_vdd) ND2LL
    g19 (Pi1 Pi2 Po inh_gnd inh_vdd) AN2LL
    g17 (Gi1 n_1 Go inh_gnd inh_vdd) ND2ALL
ends CarryOperator_110
// End of subcircuit definition.

// Library name: 64BitKSA
// Cell name: GPGenerator_48
// View name: schematic
subckt GPGenerator_48 Go Po A B inh_gnd inh_vdd
    g17 (A B Go Po inh_gnd inh_vdd) HA1LL
ends GPGenerator_48
// End of subcircuit definition.

// Library name: 64BitKSA
// Cell name: CarryOperator_111
// View name: schematic
subckt CarryOperator_111 Go Po Gi1 Pi1 Gi2 Pi2 inh_gnd inh_vdd
    g18 (Gi2 Pi1 n_1 inh_gnd inh_vdd) ND2LL
    g19 (Pi1 Pi2 Po inh_gnd inh_vdd) AN2LL
    g17 (Gi1 n_1 Go inh_gnd inh_vdd) ND2ALL
ends CarryOperator_111
// End of subcircuit definition.

// Library name: 64BitKSA
// Cell name: GPGenerator_49
// View name: schematic
subckt GPGenerator_49 Go Po A B inh_gnd inh_vdd
    g17 (A B Go Po inh_gnd inh_vdd) HA1LL
ends GPGenerator_49
// End of subcircuit definition.

// Library name: 64BitKSA
// Cell name: CarryOperator_112
// View name: schematic
subckt CarryOperator_112 Go Po Gi1 Pi1 Gi2 Pi2 inh_gnd inh_vdd
    g18 (Gi2 Pi1 n_1 inh_gnd inh_vdd) ND2LL
    g19 (Pi1 Pi2 Po inh_gnd inh_vdd) AN2LL
    g17 (Gi1 n_1 Go inh_gnd inh_vdd) ND2ALL
ends CarryOperator_112
// End of subcircuit definition.

// Library name: 64BitKSA
// Cell name: GPGenerator_50
// View name: schematic
subckt GPGenerator_50 Go Po A B inh_gnd inh_vdd
    g17 (A B Go Po inh_gnd inh_vdd) HA1LL
ends GPGenerator_50
// End of subcircuit definition.

// Library name: 64BitKSA
// Cell name: CarryOperator_113
// View name: schematic
subckt CarryOperator_113 Go Po Gi1 Pi1 Gi2 Pi2 inh_gnd inh_vdd
    g18 (Gi2 Pi1 n_1 inh_gnd inh_vdd) ND2LL
    g19 (Pi1 Pi2 Po inh_gnd inh_vdd) AN2LL
    g17 (Gi1 n_1 Go inh_gnd inh_vdd) ND2ALL
ends CarryOperator_113
// End of subcircuit definition.

// Library name: 64BitKSA
// Cell name: GPGenerator_51
// View name: schematic
subckt GPGenerator_51 Go Po A B inh_gnd inh_vdd
    g17 (A B Go Po inh_gnd inh_vdd) HA1LL
ends GPGenerator_51
// End of subcircuit definition.

// Library name: 64BitKSA
// Cell name: CarryOperator_114
// View name: schematic
subckt CarryOperator_114 Go Po Gi1 Pi1 Gi2 Pi2 inh_gnd inh_vdd
    g18 (Gi2 Pi1 n_1 inh_gnd inh_vdd) ND2LL
    g19 (Pi1 Pi2 Po inh_gnd inh_vdd) AN2LL
    g17 (Gi1 n_1 Go inh_gnd inh_vdd) ND2ALL
ends CarryOperator_114
// End of subcircuit definition.

// Library name: 64BitKSA
// Cell name: CarryOperator_94
// View name: schematic
subckt CarryOperator_94 Go Po Gi1 Pi1 Gi2 Pi2 inh_gnd inh_vdd
    g18 (Gi2 Pi1 n_1 inh_gnd inh_vdd) ND2LL
    g19 (Pi1 Pi2 Po inh_gnd inh_vdd) AN2LL
    g17 (Gi1 n_1 Go inh_gnd inh_vdd) ND2ALL
ends CarryOperator_94
// End of subcircuit definition.

// Library name: 64BitKSA
// Cell name: CarryOperator_93
// View name: schematic
subckt CarryOperator_93 Go Po Gi1 Pi1 Gi2 Pi2 inh_gnd inh_vdd
    g18 (Gi2 Pi1 n_1 inh_gnd inh_vdd) ND2LL
    g19 (Pi1 Pi2 Po inh_gnd inh_vdd) AN2LL
    g17 (Gi1 n_1 Go inh_gnd inh_vdd) ND2ALL
ends CarryOperator_93
// End of subcircuit definition.

// Library name: 64BitKSA
// Cell name: GPGenerator_31
// View name: schematic
subckt GPGenerator_31 Go Po A B inh_gnd inh_vdd
    g17 (A B Go Po inh_gnd inh_vdd) HA1LL
ends GPGenerator_31
// End of subcircuit definition.

// Library name: 64BitKSA
// Cell name: GPGenerator_30
// View name: schematic
subckt GPGenerator_30 Go Po A B inh_gnd inh_vdd
    g17 (A B Go Po inh_gnd inh_vdd) HA1LL
ends GPGenerator_30
// End of subcircuit definition.

// Library name: 64BitKSA
// Cell name: CarryOperator_92
// View name: schematic
subckt CarryOperator_92 Go Po Gi1 Pi1 Gi2 Pi2 inh_gnd inh_vdd
    g18 (Gi2 Pi1 n_1 inh_gnd inh_vdd) ND2LL
    g19 (Pi1 Pi2 Po inh_gnd inh_vdd) AN2LL
    g17 (Gi1 n_1 Go inh_gnd inh_vdd) ND2ALL
ends CarryOperator_92
// End of subcircuit definition.

// Library name: 64BitKSA
// Cell name: GPGenerator_29
// View name: schematic
subckt GPGenerator_29 Go Po A B inh_gnd inh_vdd
    g17 (A B Go Po inh_gnd inh_vdd) HA1LL
ends GPGenerator_29
// End of subcircuit definition.

// Library name: 64BitKSA
// Cell name: CarryOperator_91
// View name: schematic
subckt CarryOperator_91 Go Po Gi1 Pi1 Gi2 Pi2 inh_gnd inh_vdd
    g18 (Gi2 Pi1 n_1 inh_gnd inh_vdd) ND2LL
    g19 (Pi1 Pi2 Po inh_gnd inh_vdd) AN2LL
    g17 (Gi1 n_1 Go inh_gnd inh_vdd) ND2ALL
ends CarryOperator_91
// End of subcircuit definition.

// Library name: 64BitKSA
// Cell name: GPGenerator_28
// View name: schematic
subckt GPGenerator_28 Go Po A B inh_gnd inh_vdd
    g17 (A B Go Po inh_gnd inh_vdd) HA1LL
ends GPGenerator_28
// End of subcircuit definition.

// Library name: 64BitKSA
// Cell name: CarryOperator_90
// View name: schematic
subckt CarryOperator_90 Go Po Gi1 Pi1 Gi2 Pi2 inh_gnd inh_vdd
    g18 (Gi2 Pi1 n_1 inh_gnd inh_vdd) ND2LL
    g19 (Pi1 Pi2 Po inh_gnd inh_vdd) AN2LL
    g17 (Gi1 n_1 Go inh_gnd inh_vdd) ND2ALL
ends CarryOperator_90
// End of subcircuit definition.

// Library name: 64BitKSA
// Cell name: GPGenerator_27
// View name: schematic
subckt GPGenerator_27 Go Po A B inh_gnd inh_vdd
    g17 (A B Go Po inh_gnd inh_vdd) HA1LL
ends GPGenerator_27
// End of subcircuit definition.

// Library name: 64BitKSA
// Cell name: CarryOperator_89
// View name: schematic
subckt CarryOperator_89 Go Po Gi1 Pi1 Gi2 Pi2 inh_gnd inh_vdd
    g18 (Gi2 Pi1 n_1 inh_gnd inh_vdd) ND2LL
    g19 (Pi1 Pi2 Po inh_gnd inh_vdd) AN2LL
    g17 (Gi1 n_1 Go inh_gnd inh_vdd) ND2ALL
ends CarryOperator_89
// End of subcircuit definition.

// Library name: 64BitKSA
// Cell name: GPGenerator_26
// View name: schematic
subckt GPGenerator_26 Go Po A B inh_gnd inh_vdd
    g17 (A B Go Po inh_gnd inh_vdd) HA1LL
ends GPGenerator_26
// End of subcircuit definition.

// Library name: 64BitKSA
// Cell name: CarryOperator_88
// View name: schematic
subckt CarryOperator_88 Go Po Gi1 Pi1 Gi2 Pi2 inh_gnd inh_vdd
    g18 (Gi2 Pi1 n_1 inh_gnd inh_vdd) ND2LL
    g19 (Pi1 Pi2 Po inh_gnd inh_vdd) AN2LL
    g17 (Gi1 n_1 Go inh_gnd inh_vdd) ND2ALL
ends CarryOperator_88
// End of subcircuit definition.

// Library name: 64BitKSA
// Cell name: GPGenerator_25
// View name: schematic
subckt GPGenerator_25 Go Po A B inh_gnd inh_vdd
    g17 (A B Go Po inh_gnd inh_vdd) HA1LL
ends GPGenerator_25
// End of subcircuit definition.

// Library name: 64BitKSA
// Cell name: CarryOperator_87
// View name: schematic
subckt CarryOperator_87 Go Po Gi1 Pi1 Gi2 Pi2 inh_gnd inh_vdd
    g18 (Gi2 Pi1 n_1 inh_gnd inh_vdd) ND2LL
    g19 (Pi1 Pi2 Po inh_gnd inh_vdd) AN2LL
    g17 (Gi1 n_1 Go inh_gnd inh_vdd) ND2ALL
ends CarryOperator_87
// End of subcircuit definition.

// Library name: 64BitKSA
// Cell name: GPGenerator_24
// View name: schematic
subckt GPGenerator_24 Go Po A B inh_gnd inh_vdd
    g17 (A B Go Po inh_gnd inh_vdd) HA1LL
ends GPGenerator_24
// End of subcircuit definition.

// Library name: 64BitKSA
// Cell name: CarryOperator_86
// View name: schematic
subckt CarryOperator_86 Go Po Gi1 Pi1 Gi2 Pi2 inh_gnd inh_vdd
    g18 (Gi2 Pi1 n_1 inh_gnd inh_vdd) ND2LL
    g19 (Pi1 Pi2 Po inh_gnd inh_vdd) AN2LL
    g17 (Gi1 n_1 Go inh_gnd inh_vdd) ND2ALL
ends CarryOperator_86
// End of subcircuit definition.

// Library name: 64BitKSA
// Cell name: GPGenerator_23
// View name: schematic
subckt GPGenerator_23 Go Po A B inh_gnd inh_vdd
    g17 (A B Go Po inh_gnd inh_vdd) HA1LL
ends GPGenerator_23
// End of subcircuit definition.

// Library name: 64BitKSA
// Cell name: CarryOperator_85
// View name: schematic
subckt CarryOperator_85 Go Po Gi1 Pi1 Gi2 Pi2 inh_gnd inh_vdd
    g18 (Gi2 Pi1 n_1 inh_gnd inh_vdd) ND2LL
    g19 (Pi1 Pi2 Po inh_gnd inh_vdd) AN2LL
    g17 (Gi1 n_1 Go inh_gnd inh_vdd) ND2ALL
ends CarryOperator_85
// End of subcircuit definition.

// Library name: 64BitKSA
// Cell name: GPGenerator_22
// View name: schematic
subckt GPGenerator_22 Go Po A B inh_gnd inh_vdd
    g17 (A B Go Po inh_gnd inh_vdd) HA1LL
ends GPGenerator_22
// End of subcircuit definition.

// Library name: 64BitKSA
// Cell name: CarryOperator_84
// View name: schematic
subckt CarryOperator_84 Go Po Gi1 Pi1 Gi2 Pi2 inh_gnd inh_vdd
    g18 (Gi2 Pi1 n_1 inh_gnd inh_vdd) ND2LL
    g19 (Pi1 Pi2 Po inh_gnd inh_vdd) AN2LL
    g17 (Gi1 n_1 Go inh_gnd inh_vdd) ND2ALL
ends CarryOperator_84
// End of subcircuit definition.

// Library name: 64BitKSA
// Cell name: GPGenerator_21
// View name: schematic
subckt GPGenerator_21 Go Po A B inh_gnd inh_vdd
    g17 (A B Go Po inh_gnd inh_vdd) HA1LL
ends GPGenerator_21
// End of subcircuit definition.

// Library name: 64BitKSA
// Cell name: CarryOperator_83
// View name: schematic
subckt CarryOperator_83 Go Po Gi1 Pi1 Gi2 Pi2 inh_gnd inh_vdd
    g18 (Gi2 Pi1 n_1 inh_gnd inh_vdd) ND2LL
    g19 (Pi1 Pi2 Po inh_gnd inh_vdd) AN2LL
    g17 (Gi1 n_1 Go inh_gnd inh_vdd) ND2ALL
ends CarryOperator_83
// End of subcircuit definition.

// Library name: 64BitKSA
// Cell name: GPGenerator_20
// View name: schematic
subckt GPGenerator_20 Go Po A B inh_gnd inh_vdd
    g17 (A B Go Po inh_gnd inh_vdd) HA1LL
ends GPGenerator_20
// End of subcircuit definition.

// Library name: 64BitKSA
// Cell name: CarryOperator_82
// View name: schematic
subckt CarryOperator_82 Go Po Gi1 Pi1 Gi2 Pi2 inh_gnd inh_vdd
    g18 (Gi2 Pi1 n_1 inh_gnd inh_vdd) ND2LL
    g19 (Pi1 Pi2 Po inh_gnd inh_vdd) AN2LL
    g17 (Gi1 n_1 Go inh_gnd inh_vdd) ND2ALL
ends CarryOperator_82
// End of subcircuit definition.

// Library name: 64BitKSA
// Cell name: GPGenerator_19
// View name: schematic
subckt GPGenerator_19 Go Po A B inh_gnd inh_vdd
    g17 (A B Go Po inh_gnd inh_vdd) HA1LL
ends GPGenerator_19
// End of subcircuit definition.

// Library name: 64BitKSA
// Cell name: CarryOperator_81
// View name: schematic
subckt CarryOperator_81 Go Po Gi1 Pi1 Gi2 Pi2 inh_gnd inh_vdd
    g18 (Gi2 Pi1 n_1 inh_gnd inh_vdd) ND2LL
    g19 (Pi1 Pi2 Po inh_gnd inh_vdd) AN2LL
    g17 (Gi1 n_1 Go inh_gnd inh_vdd) ND2ALL
ends CarryOperator_81
// End of subcircuit definition.

// Library name: 64BitKSA
// Cell name: GPGenerator_18
// View name: schematic
subckt GPGenerator_18 Go Po A B inh_gnd inh_vdd
    g17 (A B Go Po inh_gnd inh_vdd) HA1LL
ends GPGenerator_18
// End of subcircuit definition.

// Library name: 64BitKSA
// Cell name: CarryOperator_80
// View name: schematic
subckt CarryOperator_80 Go Po Gi1 Pi1 Gi2 Pi2 inh_gnd inh_vdd
    g18 (Gi2 Pi1 n_1 inh_gnd inh_vdd) ND2LL
    g19 (Pi1 Pi2 Po inh_gnd inh_vdd) AN2LL
    g17 (Gi1 n_1 Go inh_gnd inh_vdd) ND2ALL
ends CarryOperator_80
// End of subcircuit definition.

// Library name: 64BitKSA
// Cell name: GPGenerator_17
// View name: schematic
subckt GPGenerator_17 Go Po A B inh_gnd inh_vdd
    g17 (A B Go Po inh_gnd inh_vdd) HA1LL
ends GPGenerator_17
// End of subcircuit definition.

// Library name: 64BitKSA
// Cell name: CarryOperator_79
// View name: schematic
subckt CarryOperator_79 Go Po Gi1 Pi1 Gi2 Pi2 inh_gnd inh_vdd
    g18 (Gi2 Pi1 n_1 inh_gnd inh_vdd) ND2LL
    g19 (Pi1 Pi2 Po inh_gnd inh_vdd) AN2LL
    g17 (Gi1 n_1 Go inh_gnd inh_vdd) ND2ALL
ends CarryOperator_79
// End of subcircuit definition.

// Library name: 64BitKSA
// Cell name: GPGenerator_16
// View name: schematic
subckt GPGenerator_16 Go Po A B inh_gnd inh_vdd
    g17 (A B Go Po inh_gnd inh_vdd) HA1LL
ends GPGenerator_16
// End of subcircuit definition.

// Library name: 64BitKSA
// Cell name: CarryOperator_78
// View name: schematic
subckt CarryOperator_78 Go Po Gi1 Pi1 Gi2 Pi2 inh_gnd inh_vdd
    g18 (Gi2 Pi1 n_1 inh_gnd inh_vdd) ND2LL
    g19 (Pi1 Pi2 Po inh_gnd inh_vdd) AN2LL
    g17 (Gi1 n_1 Go inh_gnd inh_vdd) ND2ALL
ends CarryOperator_78
// End of subcircuit definition.

// Library name: 64BitKSA
// Cell name: GPGenerator_15
// View name: schematic
subckt GPGenerator_15 Go Po A B inh_gnd inh_vdd
    g17 (A B Go Po inh_gnd inh_vdd) HA1LL
ends GPGenerator_15
// End of subcircuit definition.

// Library name: 64BitKSA
// Cell name: CarryOperator_77
// View name: schematic
subckt CarryOperator_77 Go Po Gi1 Pi1 Gi2 Pi2 inh_gnd inh_vdd
    g18 (Gi2 Pi1 n_1 inh_gnd inh_vdd) ND2LL
    g19 (Pi1 Pi2 Po inh_gnd inh_vdd) AN2LL
    g17 (Gi1 n_1 Go inh_gnd inh_vdd) ND2ALL
ends CarryOperator_77
// End of subcircuit definition.

// Library name: 64BitKSA
// Cell name: GPGenerator_14
// View name: schematic
subckt GPGenerator_14 Go Po A B inh_gnd inh_vdd
    g17 (A B Go Po inh_gnd inh_vdd) HA1LL
ends GPGenerator_14
// End of subcircuit definition.

// Library name: 64BitKSA
// Cell name: CarryOperator_76
// View name: schematic
subckt CarryOperator_76 Go Po Gi1 Pi1 Gi2 Pi2 inh_gnd inh_vdd
    g18 (Gi2 Pi1 n_1 inh_gnd inh_vdd) ND2LL
    g19 (Pi1 Pi2 Po inh_gnd inh_vdd) AN2LL
    g17 (Gi1 n_1 Go inh_gnd inh_vdd) ND2ALL
ends CarryOperator_76
// End of subcircuit definition.

// Library name: 64BitKSA
// Cell name: GPGenerator_13
// View name: schematic
subckt GPGenerator_13 Go Po A B inh_gnd inh_vdd
    g17 (A B Go Po inh_gnd inh_vdd) HA1LL
ends GPGenerator_13
// End of subcircuit definition.

// Library name: 64BitKSA
// Cell name: CarryOperator_75
// View name: schematic
subckt CarryOperator_75 Go Po Gi1 Pi1 Gi2 Pi2 inh_gnd inh_vdd
    g18 (Gi2 Pi1 n_1 inh_gnd inh_vdd) ND2LL
    g19 (Pi1 Pi2 Po inh_gnd inh_vdd) AN2LL
    g17 (Gi1 n_1 Go inh_gnd inh_vdd) ND2ALL
ends CarryOperator_75
// End of subcircuit definition.

// Library name: 64BitKSA
// Cell name: CarryOperator_137
// View name: schematic
subckt CarryOperator_137 Go Po Gi1 Pi1 Gi2 Pi2 inh_gnd inh_vdd
    g18 (Gi2 Pi1 n_1 inh_gnd inh_vdd) ND2LL
    g19 (Pi1 Pi2 Po inh_gnd inh_vdd) AN2LL
    g17 (Gi1 n_1 Go inh_gnd inh_vdd) ND2ALL
ends CarryOperator_137
// End of subcircuit definition.

// Library name: 64BitKSA
// Cell name: CarryOperator_139
// View name: schematic
subckt CarryOperator_139 Go Po Gi1 Pi1 Gi2 Pi2 inh_gnd inh_vdd
    g18 (Gi2 Pi1 n_1 inh_gnd inh_vdd) ND2LL
    g19 (Pi1 Pi2 Po inh_gnd inh_vdd) AN2LL
    g17 (Gi1 n_1 Go inh_gnd inh_vdd) ND2ALL
ends CarryOperator_139
// End of subcircuit definition.

// Library name: 64BitKSA
// Cell name: CarryOperator_201
// View name: schematic
subckt CarryOperator_201 Go Po Gi1 Pi1 Gi2 Pi2 inh_gnd inh_vdd
    g18 (Gi2 Pi1 n_1 inh_gnd inh_vdd) ND2LL
    g19 (Pi1 Pi2 Po inh_gnd inh_vdd) AN2LL
    g17 (Gi1 n_1 Go inh_gnd inh_vdd) ND2ALL
ends CarryOperator_201
// End of subcircuit definition.

// Library name: 64BitKSA
// Cell name: CarryOperator_143
// View name: schematic
subckt CarryOperator_143 Go Po Gi1 Pi1 Gi2 Pi2 inh_gnd inh_vdd
    g18 (Gi2 Pi1 n_1 inh_gnd inh_vdd) ND2LL
    g19 (Pi1 Pi2 Po inh_gnd inh_vdd) AN2LL
    g17 (Gi1 n_1 Go inh_gnd inh_vdd) ND2ALL
ends CarryOperator_143
// End of subcircuit definition.

// Library name: 64BitKSA
// Cell name: CarryOperator_141
// View name: schematic
subckt CarryOperator_141 Go Po Gi1 Pi1 Gi2 Pi2 inh_gnd inh_vdd
    g18 (Gi2 Pi1 n_1 inh_gnd inh_vdd) ND2LL
    g19 (Pi1 Pi2 Po inh_gnd inh_vdd) AN2LL
    g17 (Gi1 n_1 Go inh_gnd inh_vdd) ND2ALL
ends CarryOperator_141
// End of subcircuit definition.

// Library name: 64BitKSA
// Cell name: CarryOperator_251
// View name: schematic
subckt CarryOperator_251 Go Po Gi1 Pi1 Gi2 Pi2 inh_gnd inh_vdd
    g12 (Gi2 Pi1 n_0 inh_gnd inh_vdd) ND2LL
    g11 (Gi1 n_0 Go inh_gnd inh_vdd) ND2ALL
    Thru\#0 (GND! Po) iprobe
ends CarryOperator_251
// End of subcircuit definition.

// Library name: 64BitKSA
// Cell name: CarryOperator_249
// View name: schematic
subckt CarryOperator_249 Go Po Gi1 Pi1 Gi2 Pi2 inh_gnd inh_vdd
    g12 (Gi2 Pi1 n_0 inh_gnd inh_vdd) ND2LL
    g11 (Gi1 n_0 Go inh_gnd inh_vdd) ND2ALL
    Thru\#0 (GND! Po) iprobe
ends CarryOperator_249
// End of subcircuit definition.

// Library name: 64BitKSA
// Cell name: CarryOperator_191
// View name: schematic
subckt CarryOperator_191 Go Po Gi1 Pi1 Gi2 Pi2 inh_gnd inh_vdd
    g12 (Gi2 Pi1 n_0 inh_gnd inh_vdd) ND2LL
    g11 (Gi1 n_0 Go inh_gnd inh_vdd) ND2ALL
    Thru\#0 (GND! Po) iprobe
ends CarryOperator_191
// End of subcircuit definition.

// Library name: 64BitKSA